90541
  -OEChem-04300807462D

 26 21  0     0  0  0  0  0  0999 V2000
    0.5369    0.0000    0.0000 F   0  5  0  0  0  0  0  0  0  0  0  0
    6.5380    3.5185    0.0000 F   0  5  0  0  0  0  0  0  0  0  0  0
    4.8059    3.5185    0.0000 F   0  5  0  0  0  0  0  0  0  0  0  0
    5.6719    2.0185    0.0000 F   0  5  0  0  0  0  0  0  0  0  0  0
    1.4030    4.5000    0.0000 N   0  0  0  0  0  0  0  0  0  0  0  0
    1.4030    0.5000    0.0000 N   0  3  0  0  0  0  0  0  0  0  0  0
    2.2690    0.0000    0.0000 N   0  0  0  0  0  0  0  0  0  0  0  0
    1.4030    3.5000    0.0000 C   0  0  0  0  0  0  0  0  0  0  0  0
    0.5369    3.0000    0.0000 C   0  0  0  0  0  0  0  0  0  0  0  0
    2.2690    3.0000    0.0000 C   0  0  0  0  0  0  0  0  0  0  0  0
    2.2690    5.0000    0.0000 C   0  0  0  0  0  0  0  0  0  0  0  0
    0.5369    5.0000    0.0000 C   0  0  0  0  0  0  0  0  0  0  0  0
    0.5369    2.0000    0.0000 C   0  0  0  0  0  0  0  0  0  0  0  0
    2.2690    2.0000    0.0000 C   0  0  0  0  0  0  0  0  0  0  0  0
    1.4030    1.5000    0.0000 C   0  0  0  0  0  0  0  0  0  0  0  0
    5.6719    3.0185    0.0000 B   0  1  0  0  0  0  0  0  0  0  0  0
    0.0000    3.3100    0.0000 H   0  0  0  0  0  0  0  0  0  0  0  0
    2.8059    3.3100    0.0000 H   0  0  0  0  0  0  0  0  0  0  0  0
    2.5790    4.4631    0.0000 H   0  0  0  0  0  0  0  0  0  0  0  0
    2.8059    5.3100    0.0000 H   0  0  0  0  0  0  0  0  0  0  0  0
    1.9590    5.5369    0.0000 H   0  0  0  0  0  0  0  0  0  0  0  0
    0.8469    5.5369    0.0000 H   0  0  0  0  0  0  0  0  0  0  0  0
    0.0000    5.3100    0.0000 H   0  0  0  0  0  0  0  0  0  0  0  0
    0.2269    4.4631    0.0000 H   0  0  0  0  0  0  0  0  0  0  0  0
    0.0000    1.6900    0.0000 H   0  0  0  0  0  0  0  0  0  0  0  0
    2.8059    1.6900    0.0000 H   0  0  0  0  0  0  0  0  0  0  0  0
  5  8  1  0  0  0  0
  5 11  1  0  0  0  0
  5 12  1  0  0  0  0
  6  7  3  0  0  0  0
  6 15  1  0  0  0  0
  8  9  2  0  0  0  0
  8 10  1  0  0  0  0
  9 13  1  0  0  0  0
  9 17  1  0  0  0  0
 10 14  2  0  0  0  0
 10 18  1  0  0  0  0
 11 19  1  0  0  0  0
 11 20  1  0  0  0  0
 11 21  1  0  0  0  0
 12 22  1  0  0  0  0
 12 23  1  0  0  0  0
 12 24  1  0  0  0  0
 13 15  2  0  0  0  0
 13 25  1  0  0  0  0
 14 15  1  0  0  0  0
 14 26  1  0  0  0  0
M  CHG  6   1  -1   2  -1   3  -1   4  -1   6   1  16   3
M  END
> <PUBCHEM_COMPOUND_CID>
90541

> <PUBCHEM_COMPOUND_CANONICALIZED>
1

> <PUBCHEM_CACTVS_COMPLEXITY>
159

> <PUBCHEM_CACTVS_HBOND_ACCEPTOR>
6

> <PUBCHEM_CACTVS_HBOND_DONOR>
0

> <PUBCHEM_CACTVS_ROTATABLE_BOND>
1

> <PUBCHEM_CACTVS_SUBSKEYS>
AAADccJzAcAAAAAAAAAAAAAAAAAAAAAAAAAwAAAAAAAAAAABAAAAHAAIAAAACAiBEAQywIMAAACAACRCQACCAAAhAgAIiAAIZIgIICLAkZGEIAhggABIyAcQAAAAAACAAAAAAAAAAQAAAAAAAAAAAAAAAA==

> <PUBCHEM_IUPAC_OPENEYE_NAME>
boron(+3) cation; 4-dimethylaminobenzenediazonium; tetrafluoride

> <PUBCHEM_IUPAC_CAS_NAME>
boron(+3) cation; 4-dimethylaminobenzenediazonium; tetrafluoride

> <PUBCHEM_IUPAC_NAME>
boron(+3) cation; 4-dimethylaminobenzenediazonium; tetrafluoride

> <PUBCHEM_IUPAC_SYSTEMATIC_NAME>
boron(+3) cation; 4-dimethylaminobenzenediazonium; tetrafluoride

> <PUBCHEM_IUPAC_TRADITIONAL_NAME>
boron(+3) cation; 4-dimethylaminobenzenediazonium; tetrafluoride

> <PUBCHEM_NIST_INCHI>
InChI=1/C8H10N3.B.4FH/c1-11(2)8-5-3-7(10-9)4-6-8;;;;;/h3-6H,1-2H3;;4*1H/q+1;+3;;;;/p-4/fC8H10N3.B.4F/h;;4*1h/q2m;4*-1

> <PUBCHEM_EXACT_MASS>
235.090391

> <PUBCHEM_MOLECULAR_FORMULA>
C8H10BF4N3

> <PUBCHEM_MOLECULAR_WEIGHT>
234.989713

> <PUBCHEM_OPENEYE_CAN_SMILES>
[B+3].CN(C)C1=CC=C(C=C1)[N+]#N.[F-].[F-].[F-].[F-]

> <PUBCHEM_OPENEYE_ISO_SMILES>
[B+3].CN(C)C1=CC=C(C=C1)[N+]#N.[F-].[F-].[F-].[F-]

> <PUBCHEM_CACTVS_TPSA>
31.4

> <PUBCHEM_MONOISOTOPIC_WEIGHT>
235.090391

> <PUBCHEM_TOTAL_CHARGE>
0

> <PUBCHEM_HEAVY_ATOM_COUNT>
16

> <PUBCHEM_ATOM_DEF_STEREO_COUNT>
0

> <PUBCHEM_ATOM_UDEF_STEREO_COUNT>
0

> <PUBCHEM_BOND_DEF_STEREO_COUNT>
0

> <PUBCHEM_BOND_UDEF_STEREO_COUNT>
0

> <PUBCHEM_ISOTOPIC_ATOM_COUNT>
0

> <PUBCHEM_COMPONENT_COUNT>
6

> <PUBCHEM_CACTVS_TAUTO_COUNT>
1

> <PUBCHEM_BONDANNOTATIONS>
10  14  8
13  15  8
14  15  8
8  10  8
8  9  8
9  13  8

$$$$
66848
  -OEChem-04300807462D

 22 21  0     0  0  0  0  0  0999 V2000
    2.0000   -2.5000    0.0000 Cl  0  5  0  0  0  0  0  0  0  0  0  0
    2.8660    2.0000    0.0000 N   0  0  0  0  0  0  0  0  0  0  0  0
    2.8660   -2.0000    0.0000 N   0  3  0  0  0  0  0  0  0  0  0  0
    3.7321   -2.5000    0.0000 N   0  0  0  0  0  0  0  0  0  0  0  0
    2.8660    1.0000    0.0000 C   0  0  0  0  0  0  0  0  0  0  0  0
    2.0000    0.5000    0.0000 C   0  0  0  0  0  0  0  0  0  0  0  0
    3.7321    0.5000    0.0000 C   0  0  0  0  0  0  0  0  0  0  0  0
    2.0000    2.5000    0.0000 C   0  0  0  0  0  0  0  0  0  0  0  0
    3.7321    2.5000    0.0000 C   0  0  0  0  0  0  0  0  0  0  0  0
    2.0000   -0.5000    0.0000 C   0  0  0  0  0  0  0  0  0  0  0  0
    3.7321   -0.5000    0.0000 C   0  0  0  0  0  0  0  0  0  0  0  0
    2.8660   -1.0000    0.0000 C   0  0  0  0  0  0  0  0  0  0  0  0
    1.4631    0.8100    0.0000 H   0  0  0  0  0  0  0  0  0  0  0  0
    4.2690    0.8100    0.0000 H   0  0  0  0  0  0  0  0  0  0  0  0
    1.6900    1.9631    0.0000 H   0  0  0  0  0  0  0  0  0  0  0  0
    1.4631    2.8100    0.0000 H   0  0  0  0  0  0  0  0  0  0  0  0
    2.3100    3.0369    0.0000 H   0  0  0  0  0  0  0  0  0  0  0  0
    3.4221    3.0369    0.0000 H   0  0  0  0  0  0  0  0  0  0  0  0
    4.2690    2.8100    0.0000 H   0  0  0  0  0  0  0  0  0  0  0  0
    4.0421    1.9631    0.0000 H   0  0  0  0  0  0  0  0  0  0  0  0
    1.4631   -0.8100    0.0000 H   0  0  0  0  0  0  0  0  0  0  0  0
    4.2690   -0.8100    0.0000 H   0  0  0  0  0  0  0  0  0  0  0  0
  2  5  1  0  0  0  0
  2  8  1  0  0  0  0
  2  9  1  0  0  0  0
  3  4  3  0  0  0  0
  3 12  1  0  0  0  0
  5  6  2  0  0  0  0
  5  7  1  0  0  0  0
  6 10  1  0  0  0  0
  6 13  1  0  0  0  0
  7 11  2  0  0  0  0
  7 14  1  0  0  0  0
  8 15  1  0  0  0  0
  8 16  1  0  0  0  0
  8 17  1  0  0  0  0
  9 18  1  0  0  0  0
  9 19  1  0  0  0  0
  9 20  1  0  0  0  0
 10 12  2  0  0  0  0
 10 21  1  0  0  0  0
 11 12  1  0  0  0  0
 11 22  1  0  0  0  0
M  CHG  2   1  -1   3   1
M  END
> <PUBCHEM_COMPOUND_CID>
66848

> <PUBCHEM_COMPOUND_CANONICALIZED>
1

> <PUBCHEM_CACTVS_COMPLEXITY>
159

> <PUBCHEM_CACTVS_HBOND_ACCEPTOR>
3

> <PUBCHEM_CACTVS_HBOND_DONOR>
0

> <PUBCHEM_CACTVS_ROTATABLE_BOND>
1

> <PUBCHEM_CACTVS_SUBSKEYS>
AAADccBzAAAEAAAAAAAAAAAAAAAAAAAAAAAwAAAAAAAAAAABAAAAHAAIAAAACAiBEAQywIMAAACAACRCQACCAAAhAgAIiAAIZIgIICLAkZGEIAhggABIyAcQAAAAAACAAAAAAAAAAQAAAAAAAAAAAAAAAA==

> <PUBCHEM_IUPAC_OPENEYE_NAME>
4-dimethylaminobenzenediazonium chloride

> <PUBCHEM_IUPAC_CAS_NAME>
4-dimethylaminobenzenediazonium chloride

> <PUBCHEM_IUPAC_NAME>
4-dimethylaminobenzenediazonium chloride

> <PUBCHEM_IUPAC_SYSTEMATIC_NAME>
4-dimethylaminobenzenediazonium chloride

> <PUBCHEM_IUPAC_TRADITIONAL_NAME>
4-dimethylaminobenzenediazonium chloride

> <PUBCHEM_NIST_INCHI>
InChI=1/C8H10N3.ClH/c1-11(2)8-5-3-7(10-9)4-6-8;/h3-6H,1-2H3;1H/q+1;/p-1/fC8H10N3.Cl/h;1h/qm;-1

> <PUBCHEM_EXACT_MASS>
183.056325

> <PUBCHEM_MOLECULAR_FORMULA>
C8H10ClN3

> <PUBCHEM_MOLECULAR_WEIGHT>
183.6381

> <PUBCHEM_OPENEYE_CAN_SMILES>
CN(C)C1=CC=C(C=C1)[N+]#N.[Cl-]

> <PUBCHEM_OPENEYE_ISO_SMILES>
CN(C)C1=CC=C(C=C1)[N+]#N.[Cl-]

> <PUBCHEM_CACTVS_TPSA>
31.4

> <PUBCHEM_MONOISOTOPIC_WEIGHT>
183.056325

> <PUBCHEM_TOTAL_CHARGE>
0

> <PUBCHEM_HEAVY_ATOM_COUNT>
12

> <PUBCHEM_ATOM_DEF_STEREO_COUNT>
0

> <PUBCHEM_ATOM_UDEF_STEREO_COUNT>
0

> <PUBCHEM_BOND_DEF_STEREO_COUNT>
0

> <PUBCHEM_BOND_UDEF_STEREO_COUNT>
0

> <PUBCHEM_ISOTOPIC_ATOM_COUNT>
0

> <PUBCHEM_COMPONENT_COUNT>
2

> <PUBCHEM_CACTVS_TAUTO_COUNT>
1

> <PUBCHEM_BONDANNOTATIONS>
10  12  8
11  12  8
5  6  8
5  7  8
6  10  8
7  11  8

$$$$
