15473373
  -OEChem-05030804112D

 26 26  0     0  0  0  0  0  0999 V2000
    2.2690    1.0000    0.0000 O   0  0  0  0  0  0  0  0  0  0  0  0
    0.5369    0.0000    0.0000 O   0  0  0  0  0  0  0  0  0  0  0  0
    1.4030    1.5000    0.0000 N   0  0  0  0  0  0  0  0  0  0  0  0
    0.5369    1.0000    0.0000 N   0  0  0  0  0  0  0  0  0  0  0  0
    2.3024    7.8024    0.0000 N   0  0  0  0  0  0  0  0  0  0  0  0
    2.2690    3.0000    0.0000 C   0  0  0  0  0  0  0  0  0  0  0  0
    2.2690    4.0000    0.0000 C   0  0  0  0  0  0  0  0  0  0  0  0
    1.4030    2.5000    0.0000 C   0  0  0  0  0  0  0  0  0  0  0  0
    1.4030    4.5000    0.0000 C   0  0  0  0  0  0  0  0  0  0  0  0
    3.1629    2.4653    0.0000 C   0  0  0  0  0  0  0  0  0  0  0  0
    3.1629    4.5347    0.0000 C   0  0  0  0  0  0  0  0  0  0  0  0
    0.5369    3.0000    0.0000 C   0  0  0  0  0  0  0  0  0  0  0  0
    0.5369    4.0000    0.0000 C   0  0  0  0  0  0  0  0  0  0  0  0
    4.0690    2.9792    0.0000 C   0  0  0  0  0  0  0  0  0  0  0  0
    4.0690    4.0208    0.0000 C   0  0  0  0  0  0  0  0  0  0  0  0
    1.4030    5.1200    0.0000 H   0  0  0  0  0  0  0  0  0  0  0  0
    3.1558    1.8454    0.0000 H   0  0  0  0  0  0  0  0  0  0  0  0
    3.1558    5.1546    0.0000 H   0  0  0  0  0  0  0  0  0  0  0  0
    0.0000    2.6900    0.0000 H   0  0  0  0  0  0  0  0  0  0  0  0
    0.0000    4.3100    0.0000 H   0  0  0  0  0  0  0  0  0  0  0  0
    4.6047    2.6671    0.0000 H   0  0  0  0  0  0  0  0  0  0  0  0
    4.6047    4.3329    0.0000 H   0  0  0  0  0  0  0  0  0  0  0  0
    2.2690    0.3800    0.0000 H   0  0  0  0  0  0  0  0  0  0  0  0
    2.8393    8.1124    0.0000 H   0  0  0  0  0  0  0  0  0  0  0  0
    1.7654    8.1124    0.0000 H   0  0  0  0  0  0  0  0  0  0  0  0
    2.3024    7.1824    0.0000 H   0  0  0  0  0  0  0  0  0  0  0  0
  1  3  1  0  0  0  0
  1 23  1  0  0  0  0
  2  4  2  0  0  0  0
  3  4  1  0  0  0  0
  3  8  1  0  0  0  0
  5 24  1  0  0  0  0
  5 25  1  0  0  0  0
  5 26  1  0  0  0  0
  6  7  1  0  0  0  0
  6  8  1  0  0  0  0
  6 10  2  0  0  0  0
  7  9  1  0  0  0  0
  7 11  2  0  0  0  0
  8 12  2  0  0  0  0
  9 13  2  0  0  0  0
  9 16  1  0  0  0  0
 10 14  1  0  0  0  0
 10 17  1  0  0  0  0
 11 15  1  0  0  0  0
 11 18  1  0  0  0  0
 12 13  1  0  0  0  0
 12 19  1  0  0  0  0
 13 20  1  0  0  0  0
 14 15  2  0  0  0  0
 14 21  1  0  0  0  0
 15 22  1  0  0  0  0
M  END
> <PUBCHEM_COMPOUND_CID>
15473373

> <PUBCHEM_COMPOUND_CANONICALIZED>
1

> <PUBCHEM_CACTVS_COMPLEXITY>
210

> <PUBCHEM_CACTVS_HBOND_ACCEPTOR>
5

> <PUBCHEM_CACTVS_HBOND_DONOR>
2

> <PUBCHEM_CACTVS_ROTATABLE_BOND>
1

> <PUBCHEM_CACTVS_SUBSKEYS>
AAADccBzMAAAAAAAAAAAAAAAAAAAAAAAAAAwYAAAAAAAAADBUAAAHAAcCAAADAiBGAAwwMAQAACBAiRCQACCBAAgAgA4iAAAZIgIICKAkZGAIABggAAIyAcQgIAOgAAAQAASAAAAAACAACQAAAAAAAAAAA==

> <PUBCHEM_IUPAC_OPENEYE_NAME>
ammonia; N-hydroxy-N-(1-naphthyl)nitrous amide

> <PUBCHEM_IUPAC_CAS_NAME>
ammonia; N-hydroxy-N-(1-naphthyl)nitrous amide

> <PUBCHEM_IUPAC_NAME>
azane; N-hydroxy-N-naphthalen-1-ylnitrous amide

> <PUBCHEM_IUPAC_SYSTEMATIC_NAME>
azane; N-hydroxy-N-naphthalen-1-yl-nitrous amide

> <PUBCHEM_IUPAC_TRADITIONAL_NAME>
ammonia; N-hydroxy-N-(1-naphthyl)nitrous amide

> <PUBCHEM_NIST_INCHI>
InChI=1/C10H8N2O2.H3N/c13-11-12(14)10-7-3-5-8-4-1-2-6-9(8)10;/h1-7,14H;1H3

> <PUBCHEM_EXACT_MASS>
205.085127

> <PUBCHEM_MOLECULAR_FORMULA>
C10H11N3O2

> <PUBCHEM_MOLECULAR_WEIGHT>
205.21324

> <PUBCHEM_OPENEYE_CAN_SMILES>
C1=CC=C2C(=C1)C=CC=C2N(N=O)O.N

> <PUBCHEM_OPENEYE_ISO_SMILES>
C1=CC=C2C(=C1)C=CC=C2N(N=O)O.N

> <PUBCHEM_CACTVS_TPSA>
53.9

> <PUBCHEM_MONOISOTOPIC_WEIGHT>
205.085127

> <PUBCHEM_TOTAL_CHARGE>
0

> <PUBCHEM_HEAVY_ATOM_COUNT>
15

> <PUBCHEM_ATOM_DEF_STEREO_COUNT>
0

> <PUBCHEM_ATOM_UDEF_STEREO_COUNT>
0

> <PUBCHEM_BOND_DEF_STEREO_COUNT>
0

> <PUBCHEM_BOND_UDEF_STEREO_COUNT>
0

> <PUBCHEM_ISOTOPIC_ATOM_COUNT>
0

> <PUBCHEM_COMPONENT_COUNT>
2

> <PUBCHEM_CACTVS_TAUTO_COUNT>
1

> <PUBCHEM_BONDANNOTATIONS>
10  14  8
11  15  8
12  13  8
14  15  8
6  10  8
6  7  8
6  8  8
7  11  8
7  9  8
8  12  8
9  13  8

$$$$
70539
  -OEChem-05030804112D

 26 26  0     0  0  0  0  0  0999 V2000
    1.7321    0.0000    0.0000 O   0  5  0  0  0  0  0  0  0  0  0  0
    0.0000    1.0000    0.0000 O   0  0  0  0  0  0  0  0  0  0  0  0
    1.7321    1.0000    0.0000 N   0  0  0  0  0  0  0  0  0  0  0  0
    0.8660    1.5000    0.0000 N   0  0  0  0  0  0  0  0  0  0  0  0
    3.3329    6.2193    0.0000 N   0  3  0  0  0  0  0  0  0  0  0  0
    4.3301    1.5000    0.0000 C   0  0  0  0  0  0  0  0  0  0  0  0
    4.3301    2.5000    0.0000 C   0  0  0  0  0  0  0  0  0  0  0  0
    3.4641    1.0000    0.0000 C   0  0  0  0  0  0  0  0  0  0  0  0
    3.4641    3.0000    0.0000 C   0  0  0  0  0  0  0  0  0  0  0  0
    2.5981    1.5000    0.0000 C   0  0  0  0  0  0  0  0  0  0  0  0
    5.2241    0.9653    0.0000 C   0  0  0  0  0  0  0  0  0  0  0  0
    5.2241    3.0347    0.0000 C   0  0  0  0  0  0  0  0  0  0  0  0
    2.5981    2.5000    0.0000 C   0  0  0  0  0  0  0  0  0  0  0  0
    6.1301    1.4792    0.0000 C   0  0  0  0  0  0  0  0  0  0  0  0
    6.1301    2.5208    0.0000 C   0  0  0  0  0  0  0  0  0  0  0  0
    3.4641    0.3800    0.0000 H   0  0  0  0  0  0  0  0  0  0  0  0
    3.4641    3.6200    0.0000 H   0  0  0  0  0  0  0  0  0  0  0  0
    5.2169    0.3454    0.0000 H   0  0  0  0  0  0  0  0  0  0  0  0
    5.2169    3.6546    0.0000 H   0  0  0  0  0  0  0  0  0  0  0  0
    2.0611    2.8100    0.0000 H   0  0  0  0  0  0  0  0  0  0  0  0
    6.6659    1.1671    0.0000 H   0  0  0  0  0  0  0  0  0  0  0  0
    6.6659    2.8329    0.0000 H   0  0  0  0  0  0  0  0  0  0  0  0
    3.8699    6.5293    0.0000 H   0  0  0  0  0  0  0  0  0  0  0  0
    2.7960    5.9093    0.0000 H   0  0  0  0  0  0  0  0  0  0  0  0
    3.0229    6.7562    0.0000 H   0  0  0  0  0  0  0  0  0  0  0  0
    3.6429    5.6824    0.0000 H   0  0  0  0  0  0  0  0  0  0  0  0
  1  3  1  0  0  0  0
  2  4  2  0  0  0  0
  3  4  1  0  0  0  0
  3 10  1  0  0  0  0
  5 23  1  0  0  0  0
  5 24  1  0  0  0  0
  5 25  1  0  0  0  0
  5 26  1  0  0  0  0
  6  7  1  0  0  0  0
  6  8  1  0  0  0  0
  6 11  2  0  0  0  0
  7  9  1  0  0  0  0
  7 12  2  0  0  0  0
  8 10  2  0  0  0  0
  8 16  1  0  0  0  0
  9 13  2  0  0  0  0
  9 17  1  0  0  0  0
 10 13  1  0  0  0  0
 11 14  1  0  0  0  0
 11 18  1  0  0  0  0
 12 15  1  0  0  0  0
 12 19  1  0  0  0  0
 13 20  1  0  0  0  0
 14 15  2  0  0  0  0
 14 21  1  0  0  0  0
 15 22  1  0  0  0  0
M  CHG  2   1  -1   5   1
M  END
> <PUBCHEM_COMPOUND_CID>
70539

> <PUBCHEM_COMPOUND_CANONICALIZED>
1

> <PUBCHEM_CACTVS_COMPLEXITY>
210

> <PUBCHEM_CACTVS_HBOND_ACCEPTOR>
4

> <PUBCHEM_CACTVS_HBOND_DONOR>
1

> <PUBCHEM_CACTVS_ROTATABLE_BOND>
1

> <PUBCHEM_CACTVS_SUBSKEYS>
AAADccBzMAAAAAAAAAAAAAAAAAAAAAAAAAAwYAAAAAAAAADBUAAAHAAcAAAADAiBGAAwwMAQAACBAiRCQACCBAAgAgA4iAAAZIgIICKAkZGAIABggAAIyAcQgIAOiAAAQAAQAAAQAACAACAAAAAAAAAAAA==

> <PUBCHEM_IUPAC_OPENEYE_NAME>
ammonium N-(2-naphthyl)-N-oxido-nitrous amide

> <PUBCHEM_IUPAC_CAS_NAME>
ammonium N-(2-naphthyl)-N-oxidonitrous amide

> <PUBCHEM_IUPAC_NAME>
azanium N-naphthalen-2-yl-N-oxidonitrous amide

> <PUBCHEM_IUPAC_SYSTEMATIC_NAME>
azanium N-naphthalen-2-yl-N-oxido-nitrous amide

> <PUBCHEM_IUPAC_TRADITIONAL_NAME>
ammonium N-(2-naphthyl)-N-oxido-nitrous amide

> <PUBCHEM_NIST_INCHI>
InChI=1/C10H7N2O2.H3N/c13-11-12(14)10-6-5-8-3-1-2-4-9(8)7-10;/h1-7H;1H3/q-1;/p+1/fC10H7N2O2.H4N/h;1H/qm;+1

> <PUBCHEM_EXACT_MASS>
205.085127

> <PUBCHEM_MOLECULAR_FORMULA>
C10H11N3O2

> <PUBCHEM_MOLECULAR_WEIGHT>
205.21324

> <PUBCHEM_OPENEYE_CAN_SMILES>
C1=CC=C2C=C(C=CC2=C1)N(N=O)[O-].[NH4+]

> <PUBCHEM_OPENEYE_ISO_SMILES>
C1=CC=C2C=C(C=CC2=C1)N(N=O)[O-].[NH4+]

> <PUBCHEM_CACTVS_TPSA>
56.7

> <PUBCHEM_MONOISOTOPIC_WEIGHT>
205.085127

> <PUBCHEM_TOTAL_CHARGE>
0

> <PUBCHEM_HEAVY_ATOM_COUNT>
15

> <PUBCHEM_ATOM_DEF_STEREO_COUNT>
0

> <PUBCHEM_ATOM_UDEF_STEREO_COUNT>
0

> <PUBCHEM_BOND_DEF_STEREO_COUNT>
0

> <PUBCHEM_BOND_UDEF_STEREO_COUNT>
0

> <PUBCHEM_ISOTOPIC_ATOM_COUNT>
0

> <PUBCHEM_COMPONENT_COUNT>
2

> <PUBCHEM_CACTVS_TAUTO_COUNT>
1

> <PUBCHEM_BONDANNOTATIONS>
10  13  8
11  14  8
12  15  8
14  15  8
6  11  8
6  7  8
6  8  8
7  12  8
7  9  8
8  10  8
9  13  8

$$$$
